
---------- Begin Simulation Statistics ----------
final_tick                                   42582000                       # Number of ticks from beginning of simulation (restored from checkpoints and never reset)
host_inst_rate                                 252049                       # Simulator instruction rate (inst/s)
host_mem_usage                                 707244                       # Number of bytes of host memory used
host_op_rate                                   287435                       # Simulator op (including micro ops) rate (op/s)
host_seconds                                     0.04                       # Real time elapsed on the host
host_tick_rate                              967686779                       # Simulator tick rate (ticks/s)
sim_freq                                 1000000000000                       # Frequency of simulated ticks
sim_insts                                       11049                       # Number of instructions simulated
sim_ops                                         12636                       # Number of ops (including micro ops) simulated
sim_seconds                                  0.000043                       # Number of seconds simulated
sim_ticks                                    42582000                       # Number of ticks simulated
system.cpu.Branches                              2331                       # Number of branches fetched
system.cpu.committedInsts                       11049                       # Number of instructions committed
system.cpu.committedOps                         12636                       # Number of ops (including micro ops) committed
system.cpu.dtb.accesses                             0                       # DTB accesses
system.cpu.dtb.align_faults                         0                       # Number of TLB faults due to alignment restrictions
system.cpu.dtb.domain_faults                        0                       # Number of TLB faults due to domain restrictions
system.cpu.dtb.flush_entries                        0                       # Number of entries that have been flushed from TLB
system.cpu.dtb.flush_tlb                            0                       # Number of times complete TLB was flushed
system.cpu.dtb.flush_tlb_asid                       0                       # Number of times TLB was flushed by ASID
system.cpu.dtb.flush_tlb_mva                        0                       # Number of times TLB was flushed by MVA
system.cpu.dtb.flush_tlb_mva_asid                   0                       # Number of times TLB was flushed by MVA & ASID
system.cpu.dtb.hits                                 0                       # DTB hits
system.cpu.dtb.inst_accesses                        0                       # ITB inst accesses
system.cpu.dtb.inst_hits                            0                       # ITB inst hits
system.cpu.dtb.inst_misses                          0                       # ITB inst misses
system.cpu.dtb.misses                               0                       # DTB misses
system.cpu.dtb.perms_faults                         0                       # Number of TLB faults due to permissions restrictions
system.cpu.dtb.prefetch_faults                      0                       # Number of TLB faults due to prefetch
system.cpu.dtb.read_accesses                        0                       # DTB read accesses
system.cpu.dtb.read_hits                            0                       # DTB read hits
system.cpu.dtb.read_misses                          0                       # DTB read misses
system.cpu.dtb.stage2_mmu.stage2_tlb.accesses            0                       # DTB accesses
system.cpu.dtb.stage2_mmu.stage2_tlb.align_faults            0                       # Number of TLB faults due to alignment restrictions
system.cpu.dtb.stage2_mmu.stage2_tlb.domain_faults            0                       # Number of TLB faults due to domain restrictions
system.cpu.dtb.stage2_mmu.stage2_tlb.flush_entries            0                       # Number of entries that have been flushed from TLB
system.cpu.dtb.stage2_mmu.stage2_tlb.flush_tlb            0                       # Number of times complete TLB was flushed
system.cpu.dtb.stage2_mmu.stage2_tlb.flush_tlb_asid            0                       # Number of times TLB was flushed by ASID
system.cpu.dtb.stage2_mmu.stage2_tlb.flush_tlb_mva            0                       # Number of times TLB was flushed by MVA
system.cpu.dtb.stage2_mmu.stage2_tlb.flush_tlb_mva_asid            0                       # Number of times TLB was flushed by MVA & ASID
system.cpu.dtb.stage2_mmu.stage2_tlb.hits            0                       # DTB hits
system.cpu.dtb.stage2_mmu.stage2_tlb.inst_accesses            0                       # ITB inst accesses
system.cpu.dtb.stage2_mmu.stage2_tlb.inst_hits            0                       # ITB inst hits
system.cpu.dtb.stage2_mmu.stage2_tlb.inst_misses            0                       # ITB inst misses
system.cpu.dtb.stage2_mmu.stage2_tlb.misses            0                       # DTB misses
system.cpu.dtb.stage2_mmu.stage2_tlb.perms_faults            0                       # Number of TLB faults due to permissions restrictions
system.cpu.dtb.stage2_mmu.stage2_tlb.prefetch_faults            0                       # Number of TLB faults due to prefetch
system.cpu.dtb.stage2_mmu.stage2_tlb.read_accesses            0                       # DTB read accesses
system.cpu.dtb.stage2_mmu.stage2_tlb.read_hits            0                       # DTB read hits
system.cpu.dtb.stage2_mmu.stage2_tlb.read_misses            0                       # DTB read misses
system.cpu.dtb.stage2_mmu.stage2_tlb.walker.walkRequestOrigin_Requested::Data            0                       # Table walker requests started/completed, data/inst
system.cpu.dtb.stage2_mmu.stage2_tlb.walker.walkRequestOrigin_Requested::Inst            0                       # Table walker requests started/completed, data/inst
system.cpu.dtb.stage2_mmu.stage2_tlb.walker.walkRequestOrigin_Requested::total            0                       # Table walker requests started/completed, data/inst
system.cpu.dtb.stage2_mmu.stage2_tlb.walker.walkRequestOrigin_Completed::Data            0                       # Table walker requests started/completed, data/inst
system.cpu.dtb.stage2_mmu.stage2_tlb.walker.walkRequestOrigin_Completed::Inst            0                       # Table walker requests started/completed, data/inst
system.cpu.dtb.stage2_mmu.stage2_tlb.walker.walkRequestOrigin_Completed::total            0                       # Table walker requests started/completed, data/inst
system.cpu.dtb.stage2_mmu.stage2_tlb.walker.walkRequestOrigin::total            0                       # Table walker requests started/completed, data/inst
system.cpu.dtb.stage2_mmu.stage2_tlb.walker.walks            0                       # Table walker walks requested
system.cpu.dtb.stage2_mmu.stage2_tlb.write_accesses            0                       # DTB write accesses
system.cpu.dtb.stage2_mmu.stage2_tlb.write_hits            0                       # DTB write hits
system.cpu.dtb.stage2_mmu.stage2_tlb.write_misses            0                       # DTB write misses
system.cpu.dtb.walker.walkRequestOrigin_Requested::Data            0                       # Table walker requests started/completed, data/inst
system.cpu.dtb.walker.walkRequestOrigin_Requested::Inst            0                       # Table walker requests started/completed, data/inst
system.cpu.dtb.walker.walkRequestOrigin_Requested::total            0                       # Table walker requests started/completed, data/inst
system.cpu.dtb.walker.walkRequestOrigin_Completed::Data            0                       # Table walker requests started/completed, data/inst
system.cpu.dtb.walker.walkRequestOrigin_Completed::Inst            0                       # Table walker requests started/completed, data/inst
system.cpu.dtb.walker.walkRequestOrigin_Completed::total            0                       # Table walker requests started/completed, data/inst
system.cpu.dtb.walker.walkRequestOrigin::total            0                       # Table walker requests started/completed, data/inst
system.cpu.dtb.walker.walks                         0                       # Table walker walks requested
system.cpu.dtb.write_accesses                       0                       # DTB write accesses
system.cpu.dtb.write_hits                           0                       # DTB write hits
system.cpu.dtb.write_misses                         0                       # DTB write misses
system.cpu.idle_fraction                     0.000000                       # Percentage of idle cycles
system.cpu.itb.accesses                             0                       # DTB accesses
system.cpu.itb.align_faults                         0                       # Number of TLB faults due to alignment restrictions
system.cpu.itb.domain_faults                        0                       # Number of TLB faults due to domain restrictions
system.cpu.itb.flush_entries                        0                       # Number of entries that have been flushed from TLB
system.cpu.itb.flush_tlb                            0                       # Number of times complete TLB was flushed
system.cpu.itb.flush_tlb_asid                       0                       # Number of times TLB was flushed by ASID
system.cpu.itb.flush_tlb_mva                        0                       # Number of times TLB was flushed by MVA
system.cpu.itb.flush_tlb_mva_asid                   0                       # Number of times TLB was flushed by MVA & ASID
system.cpu.itb.hits                                 0                       # DTB hits
system.cpu.itb.inst_accesses                        0                       # ITB inst accesses
system.cpu.itb.inst_hits                            0                       # ITB inst hits
system.cpu.itb.inst_misses                          0                       # ITB inst misses
system.cpu.itb.misses                               0                       # DTB misses
system.cpu.itb.perms_faults                         0                       # Number of TLB faults due to permissions restrictions
system.cpu.itb.prefetch_faults                      0                       # Number of TLB faults due to prefetch
system.cpu.itb.read_accesses                        0                       # DTB read accesses
system.cpu.itb.read_hits                            0                       # DTB read hits
system.cpu.itb.read_misses                          0                       # DTB read misses
system.cpu.itb.stage2_mmu.stage2_tlb.accesses            0                       # DTB accesses
system.cpu.itb.stage2_mmu.stage2_tlb.align_faults            0                       # Number of TLB faults due to alignment restrictions
system.cpu.itb.stage2_mmu.stage2_tlb.domain_faults            0                       # Number of TLB faults due to domain restrictions
system.cpu.itb.stage2_mmu.stage2_tlb.flush_entries            0                       # Number of entries that have been flushed from TLB
system.cpu.itb.stage2_mmu.stage2_tlb.flush_tlb            0                       # Number of times complete TLB was flushed
system.cpu.itb.stage2_mmu.stage2_tlb.flush_tlb_asid            0                       # Number of times TLB was flushed by ASID
system.cpu.itb.stage2_mmu.stage2_tlb.flush_tlb_mva            0                       # Number of times TLB was flushed by MVA
system.cpu.itb.stage2_mmu.stage2_tlb.flush_tlb_mva_asid            0                       # Number of times TLB was flushed by MVA & ASID
system.cpu.itb.stage2_mmu.stage2_tlb.hits            0                       # DTB hits
system.cpu.itb.stage2_mmu.stage2_tlb.inst_accesses            0                       # ITB inst accesses
system.cpu.itb.stage2_mmu.stage2_tlb.inst_hits            0                       # ITB inst hits
system.cpu.itb.stage2_mmu.stage2_tlb.inst_misses            0                       # ITB inst misses
system.cpu.itb.stage2_mmu.stage2_tlb.misses            0                       # DTB misses
system.cpu.itb.stage2_mmu.stage2_tlb.perms_faults            0                       # Number of TLB faults due to permissions restrictions
system.cpu.itb.stage2_mmu.stage2_tlb.prefetch_faults            0                       # Number of TLB faults due to prefetch
system.cpu.itb.stage2_mmu.stage2_tlb.read_accesses            0                       # DTB read accesses
system.cpu.itb.stage2_mmu.stage2_tlb.read_hits            0                       # DTB read hits
system.cpu.itb.stage2_mmu.stage2_tlb.read_misses            0                       # DTB read misses
system.cpu.itb.stage2_mmu.stage2_tlb.walker.walkRequestOrigin_Requested::Data            0                       # Table walker requests started/completed, data/inst
system.cpu.itb.stage2_mmu.stage2_tlb.walker.walkRequestOrigin_Requested::Inst            0                       # Table walker requests started/completed, data/inst
system.cpu.itb.stage2_mmu.stage2_tlb.walker.walkRequestOrigin_Requested::total            0                       # Table walker requests started/completed, data/inst
system.cpu.itb.stage2_mmu.stage2_tlb.walker.walkRequestOrigin_Completed::Data            0                       # Table walker requests started/completed, data/inst
system.cpu.itb.stage2_mmu.stage2_tlb.walker.walkRequestOrigin_Completed::Inst            0                       # Table walker requests started/completed, data/inst
system.cpu.itb.stage2_mmu.stage2_tlb.walker.walkRequestOrigin_Completed::total            0                       # Table walker requests started/completed, data/inst
system.cpu.itb.stage2_mmu.stage2_tlb.walker.walkRequestOrigin::total            0                       # Table walker requests started/completed, data/inst
system.cpu.itb.stage2_mmu.stage2_tlb.walker.walks            0                       # Table walker walks requested
system.cpu.itb.stage2_mmu.stage2_tlb.write_accesses            0                       # DTB write accesses
system.cpu.itb.stage2_mmu.stage2_tlb.write_hits            0                       # DTB write hits
system.cpu.itb.stage2_mmu.stage2_tlb.write_misses            0                       # DTB write misses
system.cpu.itb.walker.walkRequestOrigin_Requested::Data            0                       # Table walker requests started/completed, data/inst
system.cpu.itb.walker.walkRequestOrigin_Requested::Inst            0                       # Table walker requests started/completed, data/inst
system.cpu.itb.walker.walkRequestOrigin_Requested::total            0                       # Table walker requests started/completed, data/inst
system.cpu.itb.walker.walkRequestOrigin_Completed::Data            0                       # Table walker requests started/completed, data/inst
system.cpu.itb.walker.walkRequestOrigin_Completed::Inst            0                       # Table walker requests started/completed, data/inst
system.cpu.itb.walker.walkRequestOrigin_Completed::total            0                       # Table walker requests started/completed, data/inst
system.cpu.itb.walker.walkRequestOrigin::total            0                       # Table walker requests started/completed, data/inst
system.cpu.itb.walker.walks                         0                       # Table walker walks requested
system.cpu.itb.write_accesses                       0                       # DTB write accesses
system.cpu.itb.write_hits                           0                       # DTB write hits
system.cpu.itb.write_misses                         0                       # DTB write misses
system.cpu.not_idle_fraction                 1.000000                       # Percentage of non-idle cycles
system.cpu.numCycles                            85164                       # number of cpu cycles simulated
system.cpu.numWorkItemsCompleted                    0                       # number of work items this cpu completed
system.cpu.numWorkItemsStarted                      0                       # number of work items this cpu started
system.cpu.num_busy_cycles               85163.998000                       # Number of busy cycles
system.cpu.num_cc_register_reads                43618                       # number of times the CC registers were read
system.cpu.num_cc_register_writes                7502                       # number of times the CC registers were written
system.cpu.num_conditional_control_insts         1695                       # number of instructions that are conditional controls
system.cpu.num_fp_alu_accesses                      0                       # Number of float alu accesses
system.cpu.num_fp_insts                             0                       # number of float instructions
system.cpu.num_fp_register_reads                    0                       # number of times the floating registers were read
system.cpu.num_fp_register_writes                   0                       # number of times the floating registers were written
system.cpu.num_func_calls                         428                       # number of times a function call or return occured
system.cpu.num_idle_cycles                   0.002000                       # Number of idle cycles
system.cpu.num_int_alu_accesses                 10911                       # Number of integer alu accesses
system.cpu.num_int_insts                        10911                       # number of integer instructions
system.cpu.num_int_register_reads               17631                       # number of times the integer registers were read
system.cpu.num_int_register_writes               7589                       # number of times the integer registers were written
system.cpu.num_load_insts                        2001                       # Number of load instructions
system.cpu.num_mem_refs                          3882                       # number of memory refs
system.cpu.num_store_insts                       1881                       # Number of store instructions
system.cpu.num_vec_alu_accesses                     0                       # Number of vector alu accesses
system.cpu.num_vec_insts                            0                       # number of vector instructions
system.cpu.num_vec_register_reads                  22                       # number of times the vector registers were read
system.cpu.num_vec_register_writes                  6                       # number of times the vector registers were written
system.cpu.op_class::No_OpClass                     0      0.00%      0.00% # Class of executed instruction
system.cpu.op_class::IntAlu                      8822     69.17%     69.17% # Class of executed instruction
system.cpu.op_class::IntMult                       50      0.39%     69.56% # Class of executed instruction
system.cpu.op_class::IntDiv                         0      0.00%     69.56% # Class of executed instruction
system.cpu.op_class::FloatAdd                       0      0.00%     69.56% # Class of executed instruction
system.cpu.op_class::FloatCmp                       0      0.00%     69.56% # Class of executed instruction
system.cpu.op_class::FloatCvt                       0      0.00%     69.56% # Class of executed instruction
system.cpu.op_class::FloatMult                      0      0.00%     69.56% # Class of executed instruction
system.cpu.op_class::FloatMultAcc                   0      0.00%     69.56% # Class of executed instruction
system.cpu.op_class::FloatDiv                       0      0.00%     69.56% # Class of executed instruction
system.cpu.op_class::FloatMisc                      0      0.00%     69.56% # Class of executed instruction
system.cpu.op_class::FloatSqrt                      0      0.00%     69.56% # Class of executed instruction
system.cpu.op_class::SimdAdd                        0      0.00%     69.56% # Class of executed instruction
system.cpu.op_class::SimdAddAcc                     0      0.00%     69.56% # Class of executed instruction
system.cpu.op_class::SimdAlu                        0      0.00%     69.56% # Class of executed instruction
system.cpu.op_class::SimdCmp                        0      0.00%     69.56% # Class of executed instruction
system.cpu.op_class::SimdCvt                        0      0.00%     69.56% # Class of executed instruction
system.cpu.op_class::SimdMisc                       0      0.00%     69.56% # Class of executed instruction
system.cpu.op_class::SimdMult                       0      0.00%     69.56% # Class of executed instruction
system.cpu.op_class::SimdMultAcc                    0      0.00%     69.56% # Class of executed instruction
system.cpu.op_class::SimdShift                      0      0.00%     69.56% # Class of executed instruction
system.cpu.op_class::SimdShiftAcc                   0      0.00%     69.56% # Class of executed instruction
system.cpu.op_class::SimdDiv                        0      0.00%     69.56% # Class of executed instruction
system.cpu.op_class::SimdSqrt                       0      0.00%     69.56% # Class of executed instruction
system.cpu.op_class::SimdFloatAdd                   0      0.00%     69.56% # Class of executed instruction
system.cpu.op_class::SimdFloatAlu                   0      0.00%     69.56% # Class of executed instruction
system.cpu.op_class::SimdFloatCmp                   0      0.00%     69.56% # Class of executed instruction
system.cpu.op_class::SimdFloatCvt                   0      0.00%     69.56% # Class of executed instruction
system.cpu.op_class::SimdFloatDiv                   0      0.00%     69.56% # Class of executed instruction
system.cpu.op_class::SimdFloatMisc                  0      0.00%     69.56% # Class of executed instruction
system.cpu.op_class::SimdFloatMult                  0      0.00%     69.56% # Class of executed instruction
system.cpu.op_class::SimdFloatMultAcc               0      0.00%     69.56% # Class of executed instruction
system.cpu.op_class::SimdFloatSqrt                  0      0.00%     69.56% # Class of executed instruction
system.cpu.op_class::SimdReduceAdd                  0      0.00%     69.56% # Class of executed instruction
system.cpu.op_class::SimdReduceAlu                  0      0.00%     69.56% # Class of executed instruction
system.cpu.op_class::SimdReduceCmp                  0      0.00%     69.56% # Class of executed instruction
system.cpu.op_class::SimdFloatReduceAdd             0      0.00%     69.56% # Class of executed instruction
system.cpu.op_class::SimdFloatReduceCmp             0      0.00%     69.56% # Class of executed instruction
system.cpu.op_class::SimdAes                        0      0.00%     69.56% # Class of executed instruction
system.cpu.op_class::SimdAesMix                     0      0.00%     69.56% # Class of executed instruction
system.cpu.op_class::SimdSha1Hash                   0      0.00%     69.56% # Class of executed instruction
system.cpu.op_class::SimdSha1Hash2                  0      0.00%     69.56% # Class of executed instruction
system.cpu.op_class::SimdSha256Hash                 0      0.00%     69.56% # Class of executed instruction
system.cpu.op_class::SimdSha256Hash2                0      0.00%     69.56% # Class of executed instruction
system.cpu.op_class::SimdShaSigma2                  0      0.00%     69.56% # Class of executed instruction
system.cpu.op_class::SimdShaSigma3                  0      0.00%     69.56% # Class of executed instruction
system.cpu.op_class::SimdPredAlu                    0      0.00%     69.56% # Class of executed instruction
system.cpu.op_class::MemRead                     2001     15.69%     85.25% # Class of executed instruction
system.cpu.op_class::MemWrite                    1881     14.75%    100.00% # Class of executed instruction
system.cpu.op_class::FloatMemRead                   0      0.00%    100.00% # Class of executed instruction
system.cpu.op_class::FloatMemWrite                  0      0.00%    100.00% # Class of executed instruction
system.cpu.op_class::IprAccess                      0      0.00%    100.00% # Class of executed instruction
system.cpu.op_class::InstPrefetch                   0      0.00%    100.00% # Class of executed instruction
system.cpu.op_class::total                      12754                       # Class of executed instruction
system.cpu.workload.numSyscalls                    14                       # Number of system calls
system.membus.snoop_filter.hit_multi_requests            4                       # Number of requests hitting in the snoop filter with multiple (>1) holders of the requested data.
system.membus.snoop_filter.hit_multi_snoops            0                       # Number of snoops hitting in the snoop filter with multiple (>1) holders of the requested data.
system.membus.snoop_filter.hit_single_requests           97                       # Number of requests hitting in the snoop filter with a single holder of the requested data.
system.membus.snoop_filter.hit_single_snoops            0                       # Number of snoops hitting in the snoop filter with a single holder of the requested data.
system.membus.snoop_filter.tot_requests           550                       # Total number of requests made to the snoop filter.
system.membus.snoop_filter.tot_snoops               0                       # Total number of snoops made to the snoop filter.
system.membus.pwrStateResidencyTicks::UNDEFINED     42582000                       # Cumulative time (in ticks) in various power states
system.membus.trans_dist::ReadResp                393                       # Transaction distribution
system.membus.trans_dist::WritebackClean           89                       # Transaction distribution
system.membus.trans_dist::ReadExReq                68                       # Transaction distribution
system.membus.trans_dist::ReadExResp               68                       # Transaction distribution
system.membus.trans_dist::ReadCleanReq            306                       # Transaction distribution
system.membus.trans_dist::ReadSharedReq            87                       # Transaction distribution
system.membus.pkt_count_system.cpu.icache.mem_side::system.mem_ctrls.port          701                       # Packet count per connected master and slave (bytes)
system.membus.pkt_count_system.cpu.dcache.mem_side::system.mem_ctrls.port          310                       # Packet count per connected master and slave (bytes)
system.membus.pkt_count::total                   1011                       # Packet count per connected master and slave (bytes)
system.membus.pkt_size_system.cpu.icache.mem_side::system.mem_ctrls.port        25280                       # Cumulative packet size per connected master and slave (bytes)
system.membus.pkt_size_system.cpu.dcache.mem_side::system.mem_ctrls.port         9920                       # Cumulative packet size per connected master and slave (bytes)
system.membus.pkt_size::total                   35200                       # Cumulative packet size per connected master and slave (bytes)
system.membus.snoops                                0                       # Total snoops (count)
system.membus.snoopTraffic                          0                       # Total snoop traffic (bytes)
system.membus.snoop_fanout::samples               461                       # Request fanout histogram
system.membus.snoop_fanout::mean             0.026030                       # Request fanout histogram
system.membus.snoop_fanout::stdev            0.159399                       # Request fanout histogram
system.membus.snoop_fanout::underflows              0      0.00%      0.00% # Request fanout histogram
system.membus.snoop_fanout::0                     449     97.40%     97.40% # Request fanout histogram
system.membus.snoop_fanout::1                      12      2.60%    100.00% # Request fanout histogram
system.membus.snoop_fanout::2                       0      0.00%    100.00% # Request fanout histogram
system.membus.snoop_fanout::overflows               0      0.00%    100.00% # Request fanout histogram
system.membus.snoop_fanout::min_value               0                       # Request fanout histogram
system.membus.snoop_fanout::max_value               1                       # Request fanout histogram
system.membus.snoop_fanout::total                 461                       # Request fanout histogram
system.membus.reqLayer0.occupancy              913000                       # Layer occupancy (ticks)
system.membus.reqLayer0.utilization               2.1                       # Layer utilization (%)
system.membus.respLayer1.occupancy            1626250                       # Layer occupancy (ticks)
system.membus.respLayer1.utilization              3.8                       # Layer utilization (%)
system.membus.respLayer2.occupancy             824250                       # Layer occupancy (ticks)
system.membus.respLayer2.utilization              1.9                       # Layer utilization (%)
system.voltage_domain.voltage                       1                       # Voltage in Volts
system.clk_domain.clock                          1000                       # Clock period in ticks
system.cpu_voltage_domain.voltage                   1                       # Voltage in Volts
system.mem_ctrls.pwrStateResidencyTicks::UNDEFINED     42582000                       # Cumulative time (in ticks) in various power states
system.mem_ctrls.bytes_read::.cpu.inst          19584                       # Number of bytes read from this memory
system.mem_ctrls.bytes_read::.cpu.data           9920                       # Number of bytes read from this memory
system.mem_ctrls.bytes_read::total              29504                       # Number of bytes read from this memory
system.mem_ctrls.bytes_inst_read::.cpu.inst        19584                       # Number of instructions bytes read from this memory
system.mem_ctrls.bytes_inst_read::total         19584                       # Number of instructions bytes read from this memory
system.mem_ctrls.num_reads::.cpu.inst             306                       # Number of read requests responded to by this memory
system.mem_ctrls.num_reads::.cpu.data             155                       # Number of read requests responded to by this memory
system.mem_ctrls.num_reads::total                 461                       # Number of read requests responded to by this memory
system.mem_ctrls.bw_read::.cpu.inst         459912639                       # Total read bandwidth from this memory (bytes/s)
system.mem_ctrls.bw_read::.cpu.data         232962285                       # Total read bandwidth from this memory (bytes/s)
system.mem_ctrls.bw_read::total             692874924                       # Total read bandwidth from this memory (bytes/s)
system.mem_ctrls.bw_inst_read::.cpu.inst    459912639                       # Instruction read bandwidth from this memory (bytes/s)
system.mem_ctrls.bw_inst_read::total        459912639                       # Instruction read bandwidth from this memory (bytes/s)
system.mem_ctrls.bw_total::.cpu.inst        459912639                       # Total bandwidth to/from this memory (bytes/s)
system.mem_ctrls.bw_total::.cpu.data        232962285                       # Total bandwidth to/from this memory (bytes/s)
system.mem_ctrls.bw_total::total            692874924                       # Total bandwidth to/from this memory (bytes/s)
system.mem_ctrls.avgPriority_.writebacks::samples        82.00                       # Average QoS priority value for accepted requests
system.mem_ctrls.avgPriority_.cpu.inst::samples       294.00                       # Average QoS priority value for accepted requests
system.mem_ctrls.avgPriority_.cpu.data::samples       154.00                       # Average QoS priority value for accepted requests
system.mem_ctrls.priorityMinLatency      0.000000018750                       # per QoS priority minimum request to response latency (s)
system.mem_ctrls.priorityMaxLatency      0.000054173250                       # per QoS priority maximum request to response latency (s)
system.mem_ctrls.numReadWriteTurnArounds            4                       # Number of turnarounds from READ to WRITE
system.mem_ctrls.numWriteReadTurnArounds            4                       # Number of turnarounds from WRITE to READ
system.mem_ctrls.numStayReadState                 985                       # Number of times bus staying in READ state
system.mem_ctrls.numStayWriteState                 63                       # Number of times bus staying in WRITE state
system.mem_ctrls.readReqs                         461                       # Number of read requests accepted
system.mem_ctrls.writeReqs                         85                       # Number of write requests accepted
system.mem_ctrls.readBursts                       461                       # Number of DRAM read bursts, including those serviced by the write queue
system.mem_ctrls.writeBursts                       85                       # Number of DRAM write bursts, including those merged in the write queue
system.mem_ctrls.servicedByWrQ                     13                       # Number of DRAM read bursts serviced by the write queue
system.mem_ctrls.mergedWrBursts                     3                       # Number of DRAM write bursts merged with an existing one
system.mem_ctrls.neitherReadNorWriteReqs            0                       # Number of requests that are neither read nor write
system.mem_ctrls.perBankRdBursts::0                38                       # Per bank write bursts
system.mem_ctrls.perBankRdBursts::1                 3                       # Per bank write bursts
system.mem_ctrls.perBankRdBursts::2                22                       # Per bank write bursts
system.mem_ctrls.perBankRdBursts::3                29                       # Per bank write bursts
system.mem_ctrls.perBankRdBursts::4                35                       # Per bank write bursts
system.mem_ctrls.perBankRdBursts::5                42                       # Per bank write bursts
system.mem_ctrls.perBankRdBursts::6                20                       # Per bank write bursts
system.mem_ctrls.perBankRdBursts::7                94                       # Per bank write bursts
system.mem_ctrls.perBankRdBursts::8                45                       # Per bank write bursts
system.mem_ctrls.perBankRdBursts::9                59                       # Per bank write bursts
system.mem_ctrls.perBankRdBursts::10                5                       # Per bank write bursts
system.mem_ctrls.perBankRdBursts::11                5                       # Per bank write bursts
system.mem_ctrls.perBankRdBursts::12                3                       # Per bank write bursts
system.mem_ctrls.perBankRdBursts::13               16                       # Per bank write bursts
system.mem_ctrls.perBankRdBursts::14                5                       # Per bank write bursts
system.mem_ctrls.perBankRdBursts::15               27                       # Per bank write bursts
system.mem_ctrls.perBankWrBursts::0                13                       # Per bank write bursts
system.mem_ctrls.perBankWrBursts::1                 2                       # Per bank write bursts
system.mem_ctrls.perBankWrBursts::2                 6                       # Per bank write bursts
system.mem_ctrls.perBankWrBursts::3                 2                       # Per bank write bursts
system.mem_ctrls.perBankWrBursts::4                 4                       # Per bank write bursts
system.mem_ctrls.perBankWrBursts::5                15                       # Per bank write bursts
system.mem_ctrls.perBankWrBursts::6                 4                       # Per bank write bursts
system.mem_ctrls.perBankWrBursts::7                11                       # Per bank write bursts
system.mem_ctrls.perBankWrBursts::8                 2                       # Per bank write bursts
system.mem_ctrls.perBankWrBursts::9                 3                       # Per bank write bursts
system.mem_ctrls.perBankWrBursts::10                0                       # Per bank write bursts
system.mem_ctrls.perBankWrBursts::11                3                       # Per bank write bursts
system.mem_ctrls.perBankWrBursts::12                0                       # Per bank write bursts
system.mem_ctrls.perBankWrBursts::13                0                       # Per bank write bursts
system.mem_ctrls.perBankWrBursts::14                0                       # Per bank write bursts
system.mem_ctrls.perBankWrBursts::15                2                       # Per bank write bursts
system.mem_ctrls.avgRdQLen                       1.02                       # Average read queue length when enqueuing
system.mem_ctrls.avgWrQLen                      12.07                       # Average write queue length when enqueuing
system.mem_ctrls.totQLat                      3400500                       # Total ticks spent queuing
system.mem_ctrls.totBusLat                    2240000                       # Total ticks spent in databus transfers
system.mem_ctrls.totMemAccLat                11800500                       # Total ticks spent from burst creation until serviced by the DRAM
system.mem_ctrls.avgQLat                      7590.40                       # Average queueing delay per DRAM burst
system.mem_ctrls.avgBusLat                    5000.00                       # Average bus latency per DRAM burst
system.mem_ctrls.avgMemAccLat                26340.40                       # Average memory access latency per DRAM burst
system.mem_ctrls.numRdRetry                         0                       # Number of times read queue was full causing retry
system.mem_ctrls.numWrRetry                         0                       # Number of times write queue was full causing retry
system.mem_ctrls.readRowHits                      349                       # Number of row buffer hits during reads
system.mem_ctrls.writeRowHits                      54                       # Number of row buffer hits during writes
system.mem_ctrls.readRowHitRate                 77.90                       # Row buffer hit rate for reads
system.mem_ctrls.writeRowHitRate                65.85                       # Row buffer hit rate for writes
system.mem_ctrls.readPktSize::0                     0                       # Read request sizes (log2)
system.mem_ctrls.readPktSize::1                     0                       # Read request sizes (log2)
system.mem_ctrls.readPktSize::2                     0                       # Read request sizes (log2)
system.mem_ctrls.readPktSize::3                     0                       # Read request sizes (log2)
system.mem_ctrls.readPktSize::4                     0                       # Read request sizes (log2)
system.mem_ctrls.readPktSize::5                     0                       # Read request sizes (log2)
system.mem_ctrls.readPktSize::6                   461                       # Read request sizes (log2)
system.mem_ctrls.writePktSize::0                    0                       # Write request sizes (log2)
system.mem_ctrls.writePktSize::1                    0                       # Write request sizes (log2)
system.mem_ctrls.writePktSize::2                    0                       # Write request sizes (log2)
system.mem_ctrls.writePktSize::3                    0                       # Write request sizes (log2)
system.mem_ctrls.writePktSize::4                    0                       # Write request sizes (log2)
system.mem_ctrls.writePktSize::5                    0                       # Write request sizes (log2)
system.mem_ctrls.writePktSize::6                   85                       # Write request sizes (log2)
system.mem_ctrls.rdQLenPdf::0                     443                       # What read queue length does an incoming req see
system.mem_ctrls.rdQLenPdf::1                       5                       # What read queue length does an incoming req see
system.mem_ctrls.rdQLenPdf::2                       0                       # What read queue length does an incoming req see
system.mem_ctrls.rdQLenPdf::3                       0                       # What read queue length does an incoming req see
system.mem_ctrls.rdQLenPdf::4                       0                       # What read queue length does an incoming req see
system.mem_ctrls.rdQLenPdf::5                       0                       # What read queue length does an incoming req see
system.mem_ctrls.rdQLenPdf::6                       0                       # What read queue length does an incoming req see
system.mem_ctrls.rdQLenPdf::7                       0                       # What read queue length does an incoming req see
system.mem_ctrls.rdQLenPdf::8                       0                       # What read queue length does an incoming req see
system.mem_ctrls.rdQLenPdf::9                       0                       # What read queue length does an incoming req see
system.mem_ctrls.rdQLenPdf::10                      0                       # What read queue length does an incoming req see
system.mem_ctrls.rdQLenPdf::11                      0                       # What read queue length does an incoming req see
system.mem_ctrls.rdQLenPdf::12                      0                       # What read queue length does an incoming req see
system.mem_ctrls.rdQLenPdf::13                      0                       # What read queue length does an incoming req see
system.mem_ctrls.rdQLenPdf::14                      0                       # What read queue length does an incoming req see
system.mem_ctrls.rdQLenPdf::15                      0                       # What read queue length does an incoming req see
system.mem_ctrls.rdQLenPdf::16                      0                       # What read queue length does an incoming req see
system.mem_ctrls.rdQLenPdf::17                      0                       # What read queue length does an incoming req see
system.mem_ctrls.rdQLenPdf::18                      0                       # What read queue length does an incoming req see
system.mem_ctrls.rdQLenPdf::19                      0                       # What read queue length does an incoming req see
system.mem_ctrls.rdQLenPdf::20                      0                       # What read queue length does an incoming req see
system.mem_ctrls.rdQLenPdf::21                      0                       # What read queue length does an incoming req see
system.mem_ctrls.rdQLenPdf::22                      0                       # What read queue length does an incoming req see
system.mem_ctrls.rdQLenPdf::23                      0                       # What read queue length does an incoming req see
system.mem_ctrls.rdQLenPdf::24                      0                       # What read queue length does an incoming req see
system.mem_ctrls.rdQLenPdf::25                      0                       # What read queue length does an incoming req see
system.mem_ctrls.rdQLenPdf::26                      0                       # What read queue length does an incoming req see
system.mem_ctrls.rdQLenPdf::27                      0                       # What read queue length does an incoming req see
system.mem_ctrls.rdQLenPdf::28                      0                       # What read queue length does an incoming req see
system.mem_ctrls.rdQLenPdf::29                      0                       # What read queue length does an incoming req see
system.mem_ctrls.rdQLenPdf::30                      0                       # What read queue length does an incoming req see
system.mem_ctrls.rdQLenPdf::31                      0                       # What read queue length does an incoming req see
system.mem_ctrls.wrQLenPdf::0                       1                       # What write queue length does an incoming req see
system.mem_ctrls.wrQLenPdf::1                       1                       # What write queue length does an incoming req see
system.mem_ctrls.wrQLenPdf::2                       1                       # What write queue length does an incoming req see
system.mem_ctrls.wrQLenPdf::3                       1                       # What write queue length does an incoming req see
system.mem_ctrls.wrQLenPdf::4                       1                       # What write queue length does an incoming req see
system.mem_ctrls.wrQLenPdf::5                       1                       # What write queue length does an incoming req see
system.mem_ctrls.wrQLenPdf::6                       1                       # What write queue length does an incoming req see
system.mem_ctrls.wrQLenPdf::7                       1                       # What write queue length does an incoming req see
system.mem_ctrls.wrQLenPdf::8                       1                       # What write queue length does an incoming req see
system.mem_ctrls.wrQLenPdf::9                       1                       # What write queue length does an incoming req see
system.mem_ctrls.wrQLenPdf::10                      1                       # What write queue length does an incoming req see
system.mem_ctrls.wrQLenPdf::11                      1                       # What write queue length does an incoming req see
system.mem_ctrls.wrQLenPdf::12                      1                       # What write queue length does an incoming req see
system.mem_ctrls.wrQLenPdf::13                      1                       # What write queue length does an incoming req see
system.mem_ctrls.wrQLenPdf::14                      1                       # What write queue length does an incoming req see
system.mem_ctrls.wrQLenPdf::15                      1                       # What write queue length does an incoming req see
system.mem_ctrls.wrQLenPdf::16                      2                       # What write queue length does an incoming req see
system.mem_ctrls.wrQLenPdf::17                      4                       # What write queue length does an incoming req see
system.mem_ctrls.wrQLenPdf::18                      4                       # What write queue length does an incoming req see
system.mem_ctrls.wrQLenPdf::19                      4                       # What write queue length does an incoming req see
system.mem_ctrls.wrQLenPdf::20                      4                       # What write queue length does an incoming req see
system.mem_ctrls.wrQLenPdf::21                      4                       # What write queue length does an incoming req see
system.mem_ctrls.wrQLenPdf::22                      4                       # What write queue length does an incoming req see
system.mem_ctrls.wrQLenPdf::23                      4                       # What write queue length does an incoming req see
system.mem_ctrls.wrQLenPdf::24                      4                       # What write queue length does an incoming req see
system.mem_ctrls.wrQLenPdf::25                      4                       # What write queue length does an incoming req see
system.mem_ctrls.wrQLenPdf::26                      4                       # What write queue length does an incoming req see
system.mem_ctrls.wrQLenPdf::27                      4                       # What write queue length does an incoming req see
system.mem_ctrls.wrQLenPdf::28                      4                       # What write queue length does an incoming req see
system.mem_ctrls.wrQLenPdf::29                      4                       # What write queue length does an incoming req see
system.mem_ctrls.wrQLenPdf::30                      4                       # What write queue length does an incoming req see
system.mem_ctrls.wrQLenPdf::31                      4                       # What write queue length does an incoming req see
system.mem_ctrls.wrQLenPdf::32                      4                       # What write queue length does an incoming req see
system.mem_ctrls.wrQLenPdf::33                      0                       # What write queue length does an incoming req see
system.mem_ctrls.wrQLenPdf::34                      0                       # What write queue length does an incoming req see
system.mem_ctrls.wrQLenPdf::35                      0                       # What write queue length does an incoming req see
system.mem_ctrls.wrQLenPdf::36                      0                       # What write queue length does an incoming req see
system.mem_ctrls.wrQLenPdf::37                      0                       # What write queue length does an incoming req see
system.mem_ctrls.wrQLenPdf::38                      0                       # What write queue length does an incoming req see
system.mem_ctrls.wrQLenPdf::39                      0                       # What write queue length does an incoming req see
system.mem_ctrls.wrQLenPdf::40                      0                       # What write queue length does an incoming req see
system.mem_ctrls.wrQLenPdf::41                      0                       # What write queue length does an incoming req see
system.mem_ctrls.wrQLenPdf::42                      0                       # What write queue length does an incoming req see
system.mem_ctrls.wrQLenPdf::43                      0                       # What write queue length does an incoming req see
system.mem_ctrls.wrQLenPdf::44                      0                       # What write queue length does an incoming req see
system.mem_ctrls.wrQLenPdf::45                      0                       # What write queue length does an incoming req see
system.mem_ctrls.wrQLenPdf::46                      0                       # What write queue length does an incoming req see
system.mem_ctrls.wrQLenPdf::47                      0                       # What write queue length does an incoming req see
system.mem_ctrls.wrQLenPdf::48                      0                       # What write queue length does an incoming req see
system.mem_ctrls.wrQLenPdf::49                      0                       # What write queue length does an incoming req see
system.mem_ctrls.wrQLenPdf::50                      0                       # What write queue length does an incoming req see
system.mem_ctrls.wrQLenPdf::51                      0                       # What write queue length does an incoming req see
system.mem_ctrls.wrQLenPdf::52                      0                       # What write queue length does an incoming req see
system.mem_ctrls.wrQLenPdf::53                      0                       # What write queue length does an incoming req see
system.mem_ctrls.wrQLenPdf::54                      0                       # What write queue length does an incoming req see
system.mem_ctrls.wrQLenPdf::55                      0                       # What write queue length does an incoming req see
system.mem_ctrls.wrQLenPdf::56                      0                       # What write queue length does an incoming req see
system.mem_ctrls.wrQLenPdf::57                      0                       # What write queue length does an incoming req see
system.mem_ctrls.wrQLenPdf::58                      0                       # What write queue length does an incoming req see
system.mem_ctrls.wrQLenPdf::59                      0                       # What write queue length does an incoming req see
system.mem_ctrls.wrQLenPdf::60                      0                       # What write queue length does an incoming req see
system.mem_ctrls.wrQLenPdf::61                      0                       # What write queue length does an incoming req see
system.mem_ctrls.wrQLenPdf::62                      0                       # What write queue length does an incoming req see
system.mem_ctrls.wrQLenPdf::63                      0                       # What write queue length does an incoming req see
system.mem_ctrls.bytesPerActivate::samples          100                       # Bytes accessed per row activation
system.mem_ctrls.bytesPerActivate::mean    300.160000                       # Bytes accessed per row activation
system.mem_ctrls.bytesPerActivate::gmean   193.465174                       # Bytes accessed per row activation
system.mem_ctrls.bytesPerActivate::stdev   294.859896                       # Bytes accessed per row activation
system.mem_ctrls.bytesPerActivate::0-127           29     29.00%     29.00% # Bytes accessed per row activation
system.mem_ctrls.bytesPerActivate::128-255           31     31.00%     60.00% # Bytes accessed per row activation
system.mem_ctrls.bytesPerActivate::256-383           15     15.00%     75.00% # Bytes accessed per row activation
system.mem_ctrls.bytesPerActivate::384-511            4      4.00%     79.00% # Bytes accessed per row activation
system.mem_ctrls.bytesPerActivate::512-639            3      3.00%     82.00% # Bytes accessed per row activation
system.mem_ctrls.bytesPerActivate::640-767            5      5.00%     87.00% # Bytes accessed per row activation
system.mem_ctrls.bytesPerActivate::768-895            4      4.00%     91.00% # Bytes accessed per row activation
system.mem_ctrls.bytesPerActivate::896-1023            2      2.00%     93.00% # Bytes accessed per row activation
system.mem_ctrls.bytesPerActivate::1024-1151            7      7.00%    100.00% # Bytes accessed per row activation
system.mem_ctrls.bytesPerActivate::total          100                       # Bytes accessed per row activation
system.mem_ctrls.rdPerTurnAround::samples            4                       # Reads before turning the bus around for writes
system.mem_ctrls.rdPerTurnAround::mean     111.250000                       # Reads before turning the bus around for writes
system.mem_ctrls.rdPerTurnAround::gmean     59.582113                       # Reads before turning the bus around for writes
system.mem_ctrls.rdPerTurnAround::stdev    149.951937                       # Reads before turning the bus around for writes
system.mem_ctrls.rdPerTurnAround::16-31             1     25.00%     25.00% # Reads before turning the bus around for writes
system.mem_ctrls.rdPerTurnAround::32-47             1     25.00%     50.00% # Reads before turning the bus around for writes
system.mem_ctrls.rdPerTurnAround::48-63             1     25.00%     75.00% # Reads before turning the bus around for writes
system.mem_ctrls.rdPerTurnAround::320-335            1     25.00%    100.00% # Reads before turning the bus around for writes
system.mem_ctrls.rdPerTurnAround::total             4                       # Reads before turning the bus around for writes
system.mem_ctrls.wrPerTurnAround::samples            4                       # Writes before turning the bus around for reads
system.mem_ctrls.wrPerTurnAround::mean      16.750000                       # Writes before turning the bus around for reads
system.mem_ctrls.wrPerTurnAround::gmean     16.729785                       # Writes before turning the bus around for reads
system.mem_ctrls.wrPerTurnAround::stdev      0.957427                       # Writes before turning the bus around for reads
system.mem_ctrls.wrPerTurnAround::16                2     50.00%     50.00% # Writes before turning the bus around for reads
system.mem_ctrls.wrPerTurnAround::17                1     25.00%     75.00% # Writes before turning the bus around for reads
system.mem_ctrls.wrPerTurnAround::18                1     25.00%    100.00% # Writes before turning the bus around for reads
system.mem_ctrls.wrPerTurnAround::total             4                       # Writes before turning the bus around for reads
system.mem_ctrls.bytesReadDRAM                  28672                       # Total number of bytes read from DRAM
system.mem_ctrls.bytesReadWrQ                     832                       # Total number of bytes read from write queue
system.mem_ctrls.bytesWritten                    4288                       # Total number of bytes written to DRAM
system.mem_ctrls.bytesReadSys                   29504                       # Total read bytes from the system interface side
system.mem_ctrls.bytesWrittenSys                 5440                       # Total written bytes from the system interface side
system.mem_ctrls.avgRdBW                       673.34                       # Average DRAM read bandwidth in MiByte/s
system.mem_ctrls.avgWrBW                       100.70                       # Average achieved write bandwidth in MiByte/s
system.mem_ctrls.avgRdBWSys                    692.87                       # Average system read bandwidth in MiByte/s
system.mem_ctrls.avgWrBWSys                    127.75                       # Average system write bandwidth in MiByte/s
system.mem_ctrls.peakBW                      12800.00                       # Theoretical peak bandwidth in MiByte/s
system.mem_ctrls.busUtil                         6.05                       # Data bus utilization in percentage
system.mem_ctrls.busUtilRead                     5.26                       # Data bus utilization in percentage for reads
system.mem_ctrls.busUtilWrite                    0.79                       # Data bus utilization in percentage for writes
system.mem_ctrls.totGap                      42504500                       # Total gap between requests
system.mem_ctrls.avgGap                      77847.07                       # Average gap between requests
system.mem_ctrls.masterReadBytes::.cpu.inst        18816                       # Per-master bytes read from memory
system.mem_ctrls.masterReadBytes::.cpu.data         9856                       # Per-master bytes read from memory
system.mem_ctrls.masterWriteBytes::.writebacks         4288                       # Per-master bytes write to memory
system.mem_ctrls.masterReadRate::.cpu.inst 441876849.372974514961                       # Per-master bytes read from memory rate (Bytes/sec)
system.mem_ctrls.masterReadRate::.cpu.data 231459302.052510440350                       # Per-master bytes read from memory rate (Bytes/sec)
system.mem_ctrls.masterWriteRate::.writebacks 100699826.217650651932                       # Per-master bytes write to memory rate (Bytes/sec)
system.mem_ctrls.masterReadAccesses::.cpu.inst          306                       # Per-master read serviced memory accesses
system.mem_ctrls.masterReadAccesses::.cpu.data          155                       # Per-master read serviced memory accesses
system.mem_ctrls.masterWriteAccesses::.writebacks           85                       # Per-master write serviced memory accesses
system.mem_ctrls.masterReadTotalLat::.cpu.inst      7658750                       # Per-master read total memory access latency
system.mem_ctrls.masterReadTotalLat::.cpu.data      4141750                       # Per-master read total memory access latency
system.mem_ctrls.masterWriteTotalLat::.writebacks    364640250                       # Per-master write total memory access latency
system.mem_ctrls.masterReadAvgLat::.cpu.inst     25028.59                       # Per-master read average memory access latency
system.mem_ctrls.masterReadAvgLat::.cpu.data     26720.97                       # Per-master read average memory access latency
system.mem_ctrls.masterWriteAvgLat::.writebacks   4289885.29                       # Per-master write average memory access latency
system.mem_ctrls.pageHitRate                    76.04                       # Row buffer hit rate, read and write combined
system.mem_ctrls.rank1.actEnergy               328440                       # Energy for activate commands per rank (pJ)
system.mem_ctrls.rank1.preEnergy               159390                       # Energy for precharge commands per rank (pJ)
system.mem_ctrls.rank1.readEnergy             1178100                       # Energy for read commands per rank (pJ)
system.mem_ctrls.rank1.writeEnergy              52200                       # Energy for write commands per rank (pJ)
system.mem_ctrls.rank1.refreshEnergy     3073200.000000                       # Energy for refresh commands per rank (pJ)
system.mem_ctrls.rank1.actBackEnergy         18946230                       # Energy for active background per rank (pJ)
system.mem_ctrls.rank1.preBackEnergy           396960                       # Energy for precharge background per rank (pJ)
system.mem_ctrls.rank1.actPowerDownEnergy            0                       # Energy for active power-down per rank (pJ)
system.mem_ctrls.rank1.prePowerDownEnergy            0                       # Energy for precharge power-down per rank (pJ)
system.mem_ctrls.rank1.selfRefreshEnergy            0                       # Energy for self refresh per rank (pJ)
system.mem_ctrls.rank1.totalEnergy           24134520                       # Total energy per rank (pJ)
system.mem_ctrls.rank1.averagePower        566.777512                       # Core power per rank (mW)
system.mem_ctrls.rank1.totalIdleTime                0                       # Total Idle time Per DRAM Rank
system.mem_ctrls.rank1.memoryStateTime::IDLE       895750                       # Time in different power states
system.mem_ctrls.rank1.memoryStateTime::REF      1300000                       # Time in different power states
system.mem_ctrls.rank1.memoryStateTime::SREF            0                       # Time in different power states
system.mem_ctrls.rank1.memoryStateTime::PRE_PDN            0                       # Time in different power states
system.mem_ctrls.rank1.memoryStateTime::ACT     40386250                       # Time in different power states
system.mem_ctrls.rank1.memoryStateTime::ACT_PDN            0                       # Time in different power states
system.mem_ctrls.rank0.actEnergy               471240                       # Energy for activate commands per rank (pJ)
system.mem_ctrls.rank0.preEnergy               220110                       # Energy for precharge commands per rank (pJ)
system.mem_ctrls.rank0.readEnergy             2020620                       # Energy for read commands per rank (pJ)
system.mem_ctrls.rank0.writeEnergy             297540                       # Energy for write commands per rank (pJ)
system.mem_ctrls.rank0.refreshEnergy     3073200.000000                       # Energy for refresh commands per rank (pJ)
system.mem_ctrls.rank0.actBackEnergy         17850690                       # Energy for active background per rank (pJ)
system.mem_ctrls.rank0.preBackEnergy          1319520                       # Energy for precharge background per rank (pJ)
system.mem_ctrls.rank0.actPowerDownEnergy            0                       # Energy for active power-down per rank (pJ)
system.mem_ctrls.rank0.prePowerDownEnergy            0                       # Energy for precharge power-down per rank (pJ)
system.mem_ctrls.rank0.selfRefreshEnergy            0                       # Energy for self refresh per rank (pJ)
system.mem_ctrls.rank0.totalEnergy           25252920                       # Total energy per rank (pJ)
system.mem_ctrls.rank0.averagePower        593.042130                       # Core power per rank (mW)
system.mem_ctrls.rank0.totalIdleTime                0                       # Total Idle time Per DRAM Rank
system.mem_ctrls.rank0.memoryStateTime::IDLE      3297250                       # Time in different power states
system.mem_ctrls.rank0.memoryStateTime::REF      1300000                       # Time in different power states
system.mem_ctrls.rank0.memoryStateTime::SREF            0                       # Time in different power states
system.mem_ctrls.rank0.memoryStateTime::PRE_PDN            0                       # Time in different power states
system.mem_ctrls.rank0.memoryStateTime::ACT     37984750                       # Time in different power states
system.mem_ctrls.rank0.memoryStateTime::ACT_PDN            0                       # Time in different power states
system.cpu_clk_domain.clock                       500                       # Clock period in ticks
system.cpu.numPwrStateTransitions                   1                       # Number of power state transitions
system.cpu.pwrStateResidencyTicks::ON        42582000                       # Cumulative time (in ticks) in various power states
system.cpu.icache.pwrStateResidencyTicks::UNDEFINED     42582000                       # Cumulative time (in ticks) in various power states
system.cpu.icache.demand_hits::.cpu.inst        12231                       # number of demand (read+write) hits
system.cpu.icache.demand_hits::total            12231                       # number of demand (read+write) hits
system.cpu.icache.overall_hits::.cpu.inst        12231                       # number of overall hits
system.cpu.icache.overall_hits::total           12231                       # number of overall hits
system.cpu.icache.demand_misses::.cpu.inst          306                       # number of demand (read+write) misses
system.cpu.icache.demand_misses::total            306                       # number of demand (read+write) misses
system.cpu.icache.overall_misses::.cpu.inst          306                       # number of overall misses
system.cpu.icache.overall_misses::total           306                       # number of overall misses
system.cpu.icache.demand_miss_latency::.cpu.inst     17450500                       # number of demand (read+write) miss cycles
system.cpu.icache.demand_miss_latency::total     17450500                       # number of demand (read+write) miss cycles
system.cpu.icache.overall_miss_latency::.cpu.inst     17450500                       # number of overall miss cycles
system.cpu.icache.overall_miss_latency::total     17450500                       # number of overall miss cycles
system.cpu.icache.demand_accesses::.cpu.inst        12537                       # number of demand (read+write) accesses
system.cpu.icache.demand_accesses::total        12537                       # number of demand (read+write) accesses
system.cpu.icache.overall_accesses::.cpu.inst        12537                       # number of overall (read+write) accesses
system.cpu.icache.overall_accesses::total        12537                       # number of overall (read+write) accesses
system.cpu.icache.demand_miss_rate::.cpu.inst     0.024408                       # miss rate for demand accesses
system.cpu.icache.demand_miss_rate::total     0.024408                       # miss rate for demand accesses
system.cpu.icache.overall_miss_rate::.cpu.inst     0.024408                       # miss rate for overall accesses
system.cpu.icache.overall_miss_rate::total     0.024408                       # miss rate for overall accesses
system.cpu.icache.demand_avg_miss_latency::.cpu.inst 57027.777778                       # average overall miss latency
system.cpu.icache.demand_avg_miss_latency::total 57027.777778                       # average overall miss latency
system.cpu.icache.overall_avg_miss_latency::.cpu.inst 57027.777778                       # average overall miss latency
system.cpu.icache.overall_avg_miss_latency::total 57027.777778                       # average overall miss latency
system.cpu.icache.blocked_cycles::no_mshrs            0                       # number of cycles access was blocked
system.cpu.icache.blocked_cycles::no_targets            0                       # number of cycles access was blocked
system.cpu.icache.blocked::no_mshrs                 0                       # number of cycles access was blocked
system.cpu.icache.blocked::no_targets               0                       # number of cycles access was blocked
system.cpu.icache.avg_blocked_cycles::no_mshrs          nan                       # average number of cycles each access was blocked
system.cpu.icache.avg_blocked_cycles::no_targets          nan                       # average number of cycles each access was blocked
system.cpu.icache.writebacks::.writebacks           89                       # number of writebacks
system.cpu.icache.writebacks::total                89                       # number of writebacks
system.cpu.icache.demand_mshr_misses::.cpu.inst          306                       # number of demand (read+write) MSHR misses
system.cpu.icache.demand_mshr_misses::total          306                       # number of demand (read+write) MSHR misses
system.cpu.icache.overall_mshr_misses::.cpu.inst          306                       # number of overall MSHR misses
system.cpu.icache.overall_mshr_misses::total          306                       # number of overall MSHR misses
system.cpu.icache.demand_mshr_miss_latency::.cpu.inst     17144500                       # number of demand (read+write) MSHR miss cycles
system.cpu.icache.demand_mshr_miss_latency::total     17144500                       # number of demand (read+write) MSHR miss cycles
system.cpu.icache.overall_mshr_miss_latency::.cpu.inst     17144500                       # number of overall MSHR miss cycles
system.cpu.icache.overall_mshr_miss_latency::total     17144500                       # number of overall MSHR miss cycles
system.cpu.icache.demand_mshr_miss_rate::.cpu.inst     0.024408                       # mshr miss rate for demand accesses
system.cpu.icache.demand_mshr_miss_rate::total     0.024408                       # mshr miss rate for demand accesses
system.cpu.icache.overall_mshr_miss_rate::.cpu.inst     0.024408                       # mshr miss rate for overall accesses
system.cpu.icache.overall_mshr_miss_rate::total     0.024408                       # mshr miss rate for overall accesses
system.cpu.icache.demand_avg_mshr_miss_latency::.cpu.inst 56027.777778                       # average overall mshr miss latency
system.cpu.icache.demand_avg_mshr_miss_latency::total 56027.777778                       # average overall mshr miss latency
system.cpu.icache.overall_avg_mshr_miss_latency::.cpu.inst 56027.777778                       # average overall mshr miss latency
system.cpu.icache.overall_avg_mshr_miss_latency::total 56027.777778                       # average overall mshr miss latency
system.cpu.icache.replacements                     89                       # number of replacements
system.cpu.icache.ReadReq_hits::.cpu.inst        12231                       # number of ReadReq hits
system.cpu.icache.ReadReq_hits::total           12231                       # number of ReadReq hits
system.cpu.icache.ReadReq_misses::.cpu.inst          306                       # number of ReadReq misses
system.cpu.icache.ReadReq_misses::total           306                       # number of ReadReq misses
system.cpu.icache.ReadReq_miss_latency::.cpu.inst     17450500                       # number of ReadReq miss cycles
system.cpu.icache.ReadReq_miss_latency::total     17450500                       # number of ReadReq miss cycles
system.cpu.icache.ReadReq_accesses::.cpu.inst        12537                       # number of ReadReq accesses(hits+misses)
system.cpu.icache.ReadReq_accesses::total        12537                       # number of ReadReq accesses(hits+misses)
system.cpu.icache.ReadReq_miss_rate::.cpu.inst     0.024408                       # miss rate for ReadReq accesses
system.cpu.icache.ReadReq_miss_rate::total     0.024408                       # miss rate for ReadReq accesses
system.cpu.icache.ReadReq_avg_miss_latency::.cpu.inst 57027.777778                       # average ReadReq miss latency
system.cpu.icache.ReadReq_avg_miss_latency::total 57027.777778                       # average ReadReq miss latency
system.cpu.icache.ReadReq_mshr_misses::.cpu.inst          306                       # number of ReadReq MSHR misses
system.cpu.icache.ReadReq_mshr_misses::total          306                       # number of ReadReq MSHR misses
system.cpu.icache.ReadReq_mshr_miss_latency::.cpu.inst     17144500                       # number of ReadReq MSHR miss cycles
system.cpu.icache.ReadReq_mshr_miss_latency::total     17144500                       # number of ReadReq MSHR miss cycles
system.cpu.icache.ReadReq_mshr_miss_rate::.cpu.inst     0.024408                       # mshr miss rate for ReadReq accesses
system.cpu.icache.ReadReq_mshr_miss_rate::total     0.024408                       # mshr miss rate for ReadReq accesses
system.cpu.icache.ReadReq_avg_mshr_miss_latency::.cpu.inst 56027.777778                       # average ReadReq mshr miss latency
system.cpu.icache.ReadReq_avg_mshr_miss_latency::total 56027.777778                       # average ReadReq mshr miss latency
system.cpu.icache.tags.pwrStateResidencyTicks::UNDEFINED     42582000                       # Cumulative time (in ticks) in various power states
system.cpu.icache.tags.tagsinuse           127.111669                       # Cycle average of tags in use
system.cpu.icache.tags.total_refs               12537                       # Total number of references to valid blocks.
system.cpu.icache.tags.sampled_refs               306                       # Sample count of references to valid blocks.
system.cpu.icache.tags.avg_refs             40.970588                       # Average number of references to valid blocks.
system.cpu.icache.tags.warmup_cycle             77000                       # Cycle when the warmup percentage was hit.
system.cpu.icache.tags.occ_blocks::.cpu.inst   127.111669                       # Average occupied blocks per requestor
system.cpu.icache.tags.occ_percent::.cpu.inst     0.496530                       # Average percentage of cache occupancy
system.cpu.icache.tags.occ_percent::total     0.496530                       # Average percentage of cache occupancy
system.cpu.icache.tags.occ_task_id_blocks::1024          217                       # Occupied blocks per task id
system.cpu.icache.tags.age_task_id_blocks_1024::0           77                       # Occupied blocks per task id
system.cpu.icache.tags.age_task_id_blocks_1024::1          140                       # Occupied blocks per task id
system.cpu.icache.tags.occ_task_id_percent::1024     0.847656                       # Percentage of cache occupancy per task id
system.cpu.icache.tags.tag_accesses             25380                       # Number of tag accesses
system.cpu.icache.tags.data_accesses            25380                       # Number of data accesses
system.cpu.dtb.walker.pwrStateResidencyTicks::UNDEFINED     42582000                       # Cumulative time (in ticks) in various power states
system.cpu.dtb.stage2_mmu.stage2_tlb.walker.pwrStateResidencyTicks::UNDEFINED     42582000                       # Cumulative time (in ticks) in various power states
system.cpu.itb.walker.pwrStateResidencyTicks::UNDEFINED     42582000                       # Cumulative time (in ticks) in various power states
system.cpu.itb.stage2_mmu.stage2_tlb.walker.pwrStateResidencyTicks::UNDEFINED     42582000                       # Cumulative time (in ticks) in various power states
system.cpu.dcache.pwrStateResidencyTicks::UNDEFINED     42582000                       # Cumulative time (in ticks) in various power states
system.cpu.dcache.demand_hits::.cpu.data         3592                       # number of demand (read+write) hits
system.cpu.dcache.demand_hits::total             3592                       # number of demand (read+write) hits
system.cpu.dcache.overall_hits::.cpu.data         3609                       # number of overall hits
system.cpu.dcache.overall_hits::total            3609                       # number of overall hits
system.cpu.dcache.demand_misses::.cpu.data          146                       # number of demand (read+write) misses
system.cpu.dcache.demand_misses::total            146                       # number of demand (read+write) misses
system.cpu.dcache.overall_misses::.cpu.data          161                       # number of overall misses
system.cpu.dcache.overall_misses::total           161                       # number of overall misses
system.cpu.dcache.demand_miss_latency::.cpu.data      8400500                       # number of demand (read+write) miss cycles
system.cpu.dcache.demand_miss_latency::total      8400500                       # number of demand (read+write) miss cycles
system.cpu.dcache.overall_miss_latency::.cpu.data      8400500                       # number of overall miss cycles
system.cpu.dcache.overall_miss_latency::total      8400500                       # number of overall miss cycles
system.cpu.dcache.demand_accesses::.cpu.data         3738                       # number of demand (read+write) accesses
system.cpu.dcache.demand_accesses::total         3738                       # number of demand (read+write) accesses
system.cpu.dcache.overall_accesses::.cpu.data         3770                       # number of overall (read+write) accesses
system.cpu.dcache.overall_accesses::total         3770                       # number of overall (read+write) accesses
system.cpu.dcache.demand_miss_rate::.cpu.data     0.039058                       # miss rate for demand accesses
system.cpu.dcache.demand_miss_rate::total     0.039058                       # miss rate for demand accesses
system.cpu.dcache.overall_miss_rate::.cpu.data     0.042706                       # miss rate for overall accesses
system.cpu.dcache.overall_miss_rate::total     0.042706                       # miss rate for overall accesses
system.cpu.dcache.demand_avg_miss_latency::.cpu.data 57537.671233                       # average overall miss latency
system.cpu.dcache.demand_avg_miss_latency::total 57537.671233                       # average overall miss latency
system.cpu.dcache.overall_avg_miss_latency::.cpu.data 52177.018634                       # average overall miss latency
system.cpu.dcache.overall_avg_miss_latency::total 52177.018634                       # average overall miss latency
system.cpu.dcache.blocked_cycles::no_mshrs            0                       # number of cycles access was blocked
system.cpu.dcache.blocked_cycles::no_targets            0                       # number of cycles access was blocked
system.cpu.dcache.blocked::no_mshrs                 0                       # number of cycles access was blocked
system.cpu.dcache.blocked::no_targets               0                       # number of cycles access was blocked
system.cpu.dcache.avg_blocked_cycles::no_mshrs          nan                       # average number of cycles each access was blocked
system.cpu.dcache.avg_blocked_cycles::no_targets          nan                       # average number of cycles each access was blocked
system.cpu.dcache.demand_mshr_hits::.cpu.data            4                       # number of demand (read+write) MSHR hits
system.cpu.dcache.demand_mshr_hits::total            4                       # number of demand (read+write) MSHR hits
system.cpu.dcache.overall_mshr_hits::.cpu.data            4                       # number of overall MSHR hits
system.cpu.dcache.overall_mshr_hits::total            4                       # number of overall MSHR hits
system.cpu.dcache.demand_mshr_misses::.cpu.data          142                       # number of demand (read+write) MSHR misses
system.cpu.dcache.demand_mshr_misses::total          142                       # number of demand (read+write) MSHR misses
system.cpu.dcache.overall_mshr_misses::.cpu.data          153                       # number of overall MSHR misses
system.cpu.dcache.overall_mshr_misses::total          153                       # number of overall MSHR misses
system.cpu.dcache.demand_mshr_miss_latency::.cpu.data      7837500                       # number of demand (read+write) MSHR miss cycles
system.cpu.dcache.demand_mshr_miss_latency::total      7837500                       # number of demand (read+write) MSHR miss cycles
system.cpu.dcache.overall_mshr_miss_latency::.cpu.data      8901500                       # number of overall MSHR miss cycles
system.cpu.dcache.overall_mshr_miss_latency::total      8901500                       # number of overall MSHR miss cycles
system.cpu.dcache.demand_mshr_miss_rate::.cpu.data     0.037988                       # mshr miss rate for demand accesses
system.cpu.dcache.demand_mshr_miss_rate::total     0.037988                       # mshr miss rate for demand accesses
system.cpu.dcache.overall_mshr_miss_rate::.cpu.data     0.040584                       # mshr miss rate for overall accesses
system.cpu.dcache.overall_mshr_miss_rate::total     0.040584                       # mshr miss rate for overall accesses
system.cpu.dcache.demand_avg_mshr_miss_latency::.cpu.data 55193.661972                       # average overall mshr miss latency
system.cpu.dcache.demand_avg_mshr_miss_latency::total 55193.661972                       # average overall mshr miss latency
system.cpu.dcache.overall_avg_mshr_miss_latency::.cpu.data 58179.738562                       # average overall mshr miss latency
system.cpu.dcache.overall_avg_mshr_miss_latency::total 58179.738562                       # average overall mshr miss latency
system.cpu.dcache.replacements                      0                       # number of replacements
system.cpu.dcache.ReadReq_hits::.cpu.data         1838                       # number of ReadReq hits
system.cpu.dcache.ReadReq_hits::total            1838                       # number of ReadReq hits
system.cpu.dcache.ReadReq_misses::.cpu.data           78                       # number of ReadReq misses
system.cpu.dcache.ReadReq_misses::total            78                       # number of ReadReq misses
system.cpu.dcache.ReadReq_miss_latency::.cpu.data      4602500                       # number of ReadReq miss cycles
system.cpu.dcache.ReadReq_miss_latency::total      4602500                       # number of ReadReq miss cycles
system.cpu.dcache.ReadReq_accesses::.cpu.data         1916                       # number of ReadReq accesses(hits+misses)
system.cpu.dcache.ReadReq_accesses::total         1916                       # number of ReadReq accesses(hits+misses)
system.cpu.dcache.ReadReq_miss_rate::.cpu.data     0.040710                       # miss rate for ReadReq accesses
system.cpu.dcache.ReadReq_miss_rate::total     0.040710                       # miss rate for ReadReq accesses
system.cpu.dcache.ReadReq_avg_miss_latency::.cpu.data 59006.410256                       # average ReadReq miss latency
system.cpu.dcache.ReadReq_avg_miss_latency::total 59006.410256                       # average ReadReq miss latency
system.cpu.dcache.ReadReq_mshr_hits::.cpu.data            4                       # number of ReadReq MSHR hits
system.cpu.dcache.ReadReq_mshr_hits::total            4                       # number of ReadReq MSHR hits
system.cpu.dcache.ReadReq_mshr_misses::.cpu.data           74                       # number of ReadReq MSHR misses
system.cpu.dcache.ReadReq_mshr_misses::total           74                       # number of ReadReq MSHR misses
system.cpu.dcache.ReadReq_mshr_miss_latency::.cpu.data      4107500                       # number of ReadReq MSHR miss cycles
system.cpu.dcache.ReadReq_mshr_miss_latency::total      4107500                       # number of ReadReq MSHR miss cycles
system.cpu.dcache.ReadReq_mshr_miss_rate::.cpu.data     0.038622                       # mshr miss rate for ReadReq accesses
system.cpu.dcache.ReadReq_mshr_miss_rate::total     0.038622                       # mshr miss rate for ReadReq accesses
system.cpu.dcache.ReadReq_avg_mshr_miss_latency::.cpu.data 55506.756757                       # average ReadReq mshr miss latency
system.cpu.dcache.ReadReq_avg_mshr_miss_latency::total 55506.756757                       # average ReadReq mshr miss latency
system.cpu.dcache.WriteReq_hits::.cpu.data         1754                       # number of WriteReq hits
system.cpu.dcache.WriteReq_hits::total           1754                       # number of WriteReq hits
system.cpu.dcache.WriteReq_misses::.cpu.data           68                       # number of WriteReq misses
system.cpu.dcache.WriteReq_misses::total           68                       # number of WriteReq misses
system.cpu.dcache.WriteReq_miss_latency::.cpu.data      3798000                       # number of WriteReq miss cycles
system.cpu.dcache.WriteReq_miss_latency::total      3798000                       # number of WriteReq miss cycles
system.cpu.dcache.WriteReq_accesses::.cpu.data         1822                       # number of WriteReq accesses(hits+misses)
system.cpu.dcache.WriteReq_accesses::total         1822                       # number of WriteReq accesses(hits+misses)
system.cpu.dcache.WriteReq_miss_rate::.cpu.data     0.037322                       # miss rate for WriteReq accesses
system.cpu.dcache.WriteReq_miss_rate::total     0.037322                       # miss rate for WriteReq accesses
system.cpu.dcache.WriteReq_avg_miss_latency::.cpu.data 55852.941176                       # average WriteReq miss latency
system.cpu.dcache.WriteReq_avg_miss_latency::total 55852.941176                       # average WriteReq miss latency
system.cpu.dcache.WriteReq_mshr_misses::.cpu.data           68                       # number of WriteReq MSHR misses
system.cpu.dcache.WriteReq_mshr_misses::total           68                       # number of WriteReq MSHR misses
system.cpu.dcache.WriteReq_mshr_miss_latency::.cpu.data      3730000                       # number of WriteReq MSHR miss cycles
system.cpu.dcache.WriteReq_mshr_miss_latency::total      3730000                       # number of WriteReq MSHR miss cycles
system.cpu.dcache.WriteReq_mshr_miss_rate::.cpu.data     0.037322                       # mshr miss rate for WriteReq accesses
system.cpu.dcache.WriteReq_mshr_miss_rate::total     0.037322                       # mshr miss rate for WriteReq accesses
system.cpu.dcache.WriteReq_avg_mshr_miss_latency::.cpu.data 54852.941176                       # average WriteReq mshr miss latency
system.cpu.dcache.WriteReq_avg_mshr_miss_latency::total 54852.941176                       # average WriteReq mshr miss latency
system.cpu.dcache.SoftPFReq_hits::.cpu.data           17                       # number of SoftPFReq hits
system.cpu.dcache.SoftPFReq_hits::total            17                       # number of SoftPFReq hits
system.cpu.dcache.SoftPFReq_misses::.cpu.data           15                       # number of SoftPFReq misses
system.cpu.dcache.SoftPFReq_misses::total           15                       # number of SoftPFReq misses
system.cpu.dcache.SoftPFReq_accesses::.cpu.data           32                       # number of SoftPFReq accesses(hits+misses)
system.cpu.dcache.SoftPFReq_accesses::total           32                       # number of SoftPFReq accesses(hits+misses)
system.cpu.dcache.SoftPFReq_miss_rate::.cpu.data     0.468750                       # miss rate for SoftPFReq accesses
system.cpu.dcache.SoftPFReq_miss_rate::total     0.468750                       # miss rate for SoftPFReq accesses
system.cpu.dcache.SoftPFReq_mshr_misses::.cpu.data           11                       # number of SoftPFReq MSHR misses
system.cpu.dcache.SoftPFReq_mshr_misses::total           11                       # number of SoftPFReq MSHR misses
system.cpu.dcache.SoftPFReq_mshr_miss_latency::.cpu.data      1064000                       # number of SoftPFReq MSHR miss cycles
system.cpu.dcache.SoftPFReq_mshr_miss_latency::total      1064000                       # number of SoftPFReq MSHR miss cycles
system.cpu.dcache.SoftPFReq_mshr_miss_rate::.cpu.data     0.343750                       # mshr miss rate for SoftPFReq accesses
system.cpu.dcache.SoftPFReq_mshr_miss_rate::total     0.343750                       # mshr miss rate for SoftPFReq accesses
system.cpu.dcache.SoftPFReq_avg_mshr_miss_latency::.cpu.data 96727.272727                       # average SoftPFReq mshr miss latency
system.cpu.dcache.SoftPFReq_avg_mshr_miss_latency::total 96727.272727                       # average SoftPFReq mshr miss latency
system.cpu.dcache.LoadLockedReq_hits::.cpu.data           18                       # number of LoadLockedReq hits
system.cpu.dcache.LoadLockedReq_hits::total           18                       # number of LoadLockedReq hits
system.cpu.dcache.LoadLockedReq_misses::.cpu.data            2                       # number of LoadLockedReq misses
system.cpu.dcache.LoadLockedReq_misses::total            2                       # number of LoadLockedReq misses
system.cpu.dcache.LoadLockedReq_miss_latency::.cpu.data       102000                       # number of LoadLockedReq miss cycles
system.cpu.dcache.LoadLockedReq_miss_latency::total       102000                       # number of LoadLockedReq miss cycles
system.cpu.dcache.LoadLockedReq_accesses::.cpu.data           20                       # number of LoadLockedReq accesses(hits+misses)
system.cpu.dcache.LoadLockedReq_accesses::total           20                       # number of LoadLockedReq accesses(hits+misses)
system.cpu.dcache.LoadLockedReq_miss_rate::.cpu.data     0.100000                       # miss rate for LoadLockedReq accesses
system.cpu.dcache.LoadLockedReq_miss_rate::total     0.100000                       # miss rate for LoadLockedReq accesses
system.cpu.dcache.LoadLockedReq_avg_miss_latency::.cpu.data        51000                       # average LoadLockedReq miss latency
system.cpu.dcache.LoadLockedReq_avg_miss_latency::total        51000                       # average LoadLockedReq miss latency
system.cpu.dcache.LoadLockedReq_mshr_misses::.cpu.data            2                       # number of LoadLockedReq MSHR misses
system.cpu.dcache.LoadLockedReq_mshr_misses::total            2                       # number of LoadLockedReq MSHR misses
system.cpu.dcache.LoadLockedReq_mshr_miss_latency::.cpu.data       100000                       # number of LoadLockedReq MSHR miss cycles
system.cpu.dcache.LoadLockedReq_mshr_miss_latency::total       100000                       # number of LoadLockedReq MSHR miss cycles
system.cpu.dcache.LoadLockedReq_mshr_miss_rate::.cpu.data     0.100000                       # mshr miss rate for LoadLockedReq accesses
system.cpu.dcache.LoadLockedReq_mshr_miss_rate::total     0.100000                       # mshr miss rate for LoadLockedReq accesses
system.cpu.dcache.LoadLockedReq_avg_mshr_miss_latency::.cpu.data        50000                       # average LoadLockedReq mshr miss latency
system.cpu.dcache.LoadLockedReq_avg_mshr_miss_latency::total        50000                       # average LoadLockedReq mshr miss latency
system.cpu.dcache.StoreCondReq_hits::.cpu.data           20                       # number of StoreCondReq hits
system.cpu.dcache.StoreCondReq_hits::total           20                       # number of StoreCondReq hits
system.cpu.dcache.StoreCondReq_accesses::.cpu.data           20                       # number of StoreCondReq accesses(hits+misses)
system.cpu.dcache.StoreCondReq_accesses::total           20                       # number of StoreCondReq accesses(hits+misses)
system.cpu.dcache.tags.pwrStateResidencyTicks::UNDEFINED     42582000                       # Cumulative time (in ticks) in various power states
system.cpu.dcache.tags.tagsinuse            96.309522                       # Cycle average of tags in use
system.cpu.dcache.tags.total_refs                3802                       # Total number of references to valid blocks.
system.cpu.dcache.tags.sampled_refs               155                       # Sample count of references to valid blocks.
system.cpu.dcache.tags.avg_refs             24.529032                       # Average number of references to valid blocks.
system.cpu.dcache.tags.warmup_cycle            148000                       # Cycle when the warmup percentage was hit.
system.cpu.dcache.tags.occ_blocks::.cpu.data    96.309522                       # Average occupied blocks per requestor
system.cpu.dcache.tags.occ_percent::.cpu.data     0.094052                       # Average percentage of cache occupancy
system.cpu.dcache.tags.occ_percent::total     0.094052                       # Average percentage of cache occupancy
system.cpu.dcache.tags.occ_task_id_blocks::1024          155                       # Occupied blocks per task id
system.cpu.dcache.tags.age_task_id_blocks_1024::0           20                       # Occupied blocks per task id
system.cpu.dcache.tags.age_task_id_blocks_1024::1          135                       # Occupied blocks per task id
system.cpu.dcache.tags.occ_task_id_percent::1024     0.151367                       # Percentage of cache occupancy per task id
system.cpu.dcache.tags.tag_accesses              7775                       # Number of tag accesses
system.cpu.dcache.tags.data_accesses             7775                       # Number of data accesses

---------- End Simulation Statistics   ----------
